instances/data_GOC/Phase_0_Modified_RTS96/scenario_48/powersystem.raw
 0,  100.000000
rts96_spring_wday.raw / File written by to_psse.gms
5 / 19 / 2015
101, ' 101 ',138,2,1,1,1,1.00,0.00,1.1,0.9,1.1,0.9
102, ' 102 ',138,2,1,1,1,1.00,0.00,1.1,0.9,1.1,0.9
103, ' 103 ',138,1,1,1,1,1.00,0.00,1.1,0.9,1.1,0.9
104, ' 104 ',138,1,1,1,1,1.00,0.00,1.1,0.9,1.1,0.9
105, ' 105 ',138,1,1,1,1,1.00,0.00,1.1,0.9,1.1,0.9
106, ' 106 ',138,1,1,1,1,1.00,0.00,1.1,0.9,1.1,0.9
107, ' 107 ',138,2,1,1,1,1.00,0.00,1.1,0.9,1.1,0.9
108, ' 108 ',138,1,1,1,1,1.00,0.00,1.1,0.9,1.1,0.9
109, ' 109 ',138,1,1,1,1,1.00,0.00,1.1,0.9,1.1,0.9
110, ' 110 ',138,1,1,1,1,1.00,0.00,1.1,0.9,1.1,0.9
111, ' 111 ',230,1,1,1,1,1.00,0.00,1.1,0.9,1.1,0.9
112, ' 112 ',230,1,1,1,1,1.00,0.00,1.1,0.9,1.1,0.9
113, ' 113 ',230,3,1,1,1,1.00,0.00,1.1,0.9,1.1,0.9
114, ' 114 ',230,2,1,1,1,1.00,0.00,1.1,0.9,1.1,0.9
115, ' 115 ',230,2,1,1,1,1.00,0.00,1.1,0.9,1.1,0.9
116, ' 116 ',230,2,1,1,1,1.00,0.00,1.1,0.9,1.1,0.9
117, ' 117 ',230,1,1,1,1,1.00,0.00,1.1,0.9,1.1,0.9
118, ' 118 ',230,2,1,1,1,1.00,0.00,1.1,0.9,1.1,0.9
119, ' 119 ',230,1,1,1,1,1.00,0.00,1.1,0.9,1.1,0.9
120, ' 120 ',230,1,1,1,1,1.00,0.00,1.1,0.9,1.1,0.9
121, ' 121 ',230,2,1,1,1,1.00,0.00,1.1,0.9,1.1,0.9
122, ' 122 ',230,2,1,1,1,1.00,0.00,1.1,0.9,1.1,0.9
123, ' 123 ',230,2,1,1,1,1.00,0.00,1.1,0.9,1.1,0.9
124, ' 124 ',230,1,1,1,1,1.00,0.00,1.1,0.9,1.1,0.9
201, ' 201 ',138,2,1,1,1,1.00,0.00,1.1,0.9,1.1,0.9
202, ' 202 ',138,2,1,1,1,1.00,0.00,1.1,0.9,1.1,0.9
203, ' 203 ',138,1,1,1,1,1.00,0.00,1.1,0.9,1.1,0.9
204, ' 204 ',138,1,1,1,1,1.00,0.00,1.1,0.9,1.1,0.9
205, ' 205 ',138,1,1,1,1,1.00,0.00,1.1,0.9,1.1,0.9
206, ' 206 ',138,1,1,1,1,1.00,0.00,1.1,0.9,1.1,0.9
207, ' 207 ',138,2,1,1,1,1.00,0.00,1.1,0.9,1.1,0.9
208, ' 208 ',138,1,1,1,1,1.00,0.00,1.1,0.9,1.1,0.9
209, ' 209 ',138,1,1,1,1,1.00,0.00,1.1,0.9,1.1,0.9
210, ' 210 ',138,1,1,1,1,1.00,0.00,1.1,0.9,1.1,0.9
211, ' 211 ',230,1,1,1,1,1.00,0.00,1.1,0.9,1.1,0.9
212, ' 212 ',230,1,1,1,1,1.00,0.00,1.1,0.9,1.1,0.9
213, ' 213 ',230,2,1,1,1,1.00,0.00,1.1,0.9,1.1,0.9
214, ' 214 ',230,2,1,1,1,1.00,0.00,1.1,0.9,1.1,0.9
215, ' 215 ',230,2,1,1,1,1.00,0.00,1.1,0.9,1.1,0.9
216, ' 216 ',230,2,1,1,1,1.00,0.00,1.1,0.9,1.1,0.9
217, ' 217 ',230,1,1,1,1,1.00,0.00,1.1,0.9,1.1,0.9
218, ' 218 ',230,2,1,1,1,1.00,0.00,1.1,0.9,1.1,0.9
219, ' 219 ',230,1,1,1,1,1.00,0.00,1.1,0.9,1.1,0.9
220, ' 220 ',230,1,1,1,1,1.00,0.00,1.1,0.9,1.1,0.9
221, ' 221 ',230,2,1,1,1,1.00,0.00,1.1,0.9,1.1,0.9
222, ' 222 ',230,2,1,1,1,1.00,0.00,1.1,0.9,1.1,0.9
223, ' 223 ',230,2,1,1,1,1.00,0.00,1.1,0.9,1.1,0.9
224, ' 224 ',230,1,1,1,1,1.00,0.00,1.1,0.9,1.1,0.9
301, ' 301 ',138,2,1,1,1,1.00,0.00,1.1,0.9,1.1,0.9
302, ' 302 ',138,2,1,1,1,1.00,0.00,1.1,0.9,1.1,0.9
303, ' 303 ',138,1,1,1,1,1.00,0.00,1.1,0.9,1.1,0.9
304, ' 304 ',138,1,1,1,1,1.00,0.00,1.1,0.9,1.1,0.9
305, ' 305 ',138,1,1,1,1,1.00,0.00,1.1,0.9,1.1,0.9
306, ' 306 ',138,1,1,1,1,1.00,0.00,1.1,0.9,1.1,0.9
307, ' 307 ',138,2,1,1,1,1.00,0.00,1.1,0.9,1.1,0.9
308, ' 308 ',138,1,1,1,1,1.00,0.00,1.1,0.9,1.1,0.9
309, ' 309 ',138,1,1,1,1,1.00,0.00,1.1,0.9,1.1,0.9
310, ' 310 ',138,1,1,1,1,1.00,0.00,1.1,0.9,1.1,0.9
311, ' 311 ',230,1,1,1,1,1.00,0.00,1.1,0.9,1.1,0.9
312, ' 312 ',230,1,1,1,1,1.00,0.00,1.1,0.9,1.1,0.9
313, ' 313 ',230,2,1,1,1,1.00,0.00,1.1,0.9,1.1,0.9
314, ' 314 ',230,2,1,1,1,1.00,0.00,1.1,0.9,1.1,0.9
315, ' 315 ',230,2,1,1,1,1.00,0.00,1.1,0.9,1.1,0.9
316, ' 316 ',230,2,1,1,1,1.00,0.00,1.1,0.9,1.1,0.9
317, ' 317 ',230,1,1,1,1,1.00,0.00,1.1,0.9,1.1,0.9
318, ' 318 ',230,2,1,1,1,1.00,0.00,1.1,0.9,1.1,0.9
319, ' 319 ',230,1,1,1,1,1.00,0.00,1.1,0.9,1.1,0.9
320, ' 320 ',230,1,1,1,1,1.00,0.00,1.1,0.9,1.1,0.9
321, ' 321 ',230,2,1,1,1,1.00,0.00,1.1,0.9,1.1,0.9
322, ' 322 ',230,2,1,1,1,1.00,0.00,1.1,0.9,1.1,0.9
323, ' 323 ',230,2,1,1,1,1.00,0.00,1.1,0.9,1.1,0.9
324, ' 324 ',230,1,1,1,1,1.00,0.00,1.1,0.9,1.1,0.9
325, ' 325 ',230,1,1,1,1,1.00,0.00,1.1,0.9,1.1,0.9
0 / END OF BUS DATA, BEGIN LOAD DATA
101, '1 ',1,11,11,90.7217865207413,16.107335754978564,0.0,0.0,0.0,0.0,1,1,0
102, '1 ',1,11,12,67.45744877092572,13.334060659023933,0.0,0.0,0.0,0.0,1,1,0
103, '1 ',1,11,11,109.17003968764097,27.417890177064663,0.0,0.0,0.0,0.0,1,1,0
104, '1 ',1,11,11,54.6704446711108,13.391694204717641,0.0,0.0,0.0,0.0,1,1,0
105, '1 ',1,11,11,40.726020499133085,9.155999299790617,0.0,0.0,0.0,0.0,1,1,0
106, '1 ',1,11,12,89.66293245331049,24.186050288076885,0.0,0.0,0.0,0.0,1,1,0
107, '1 ',1,11,12,90.9577494165511,20.66314780273475,0.0,0.0,0.0,0.0,1,1,0
108, '1 ',1,11,12,106.42205835187231,29.903393822942625,0.0,0.0,0.0,0.0,1,1,0
109, '1 ',1,11,13,105.06731330301496,24.72496036217753,0.0,0.0,0.0,0.0,1,1,0
110, '1 ',1,11,13,105.8128418052485,29.070480773694815,0.0,0.0,0.0,0.0,1,1,0
111, '1 ',1,11,13,0.0,0.0,0.0,0.0,0.0,0.0,1,1,0
112, '1 ',1,11,13,0.0,0.0,0.0,0.0,0.0,0.0,1,1,0
113, '1 ',1,12,14,143.2411363441029,38.799388057792555,0.0,0.0,0.0,0.0,1,1,0
114, '1 ',1,12,16,144.73481600211142,31.749857850780014,0.0,0.0,0.0,0.0,1,1,0
115, '1 ',1,12,16,284.3202787652375,48.66377828696072,0.0,0.0,0.0,0.0,1,1,0
116, '1 ',1,12,16,56.945975098167544,10.470170328525825,0.0,0.0,0.0,0.0,1,1,0
117, '1 ',1,12,17,0.0,0.0,0.0,0.0,0.0,0.0,1,1,0
118, '1 ',1,12,17,205.82414715201162,49.440699148939174,0.0,0.0,0.0,0.0,1,1,0
119, '1 ',1,12,15,124.17362235540944,20.188785077502065,0.0,0.0,0.0,0.0,1,1,0
120, '1 ',1,12,15,70.90183230046033,15.420373187842591,0.0,0.0,0.0,0.0,1,1,0
121, '1 ',1,12,17,0.0,0.0,0.0,0.0,0.0,0.0,1,1,0
122, '1 ',1,12,17,0.0,0.0,0.0,0.0,0.0,0.0,1,1,0
123, '1 ',1,12,15,0.0,0.0,0.0,0.0,0.0,0.0,1,1,0
124, '1 ',1,12,16,0.0,0.0,0.0,0.0,0.0,0.0,1,1,0
201, '1 ',1,21,21,85.73312577159125,19.07852681500884,0.0,0.0,0.0,0.0,1,1,0
202, '1 ',1,21,22,68.69778469858483,13.118299306039697,0.0,0.0,0.0,0.0,1,1,0
203, '1 ',1,21,21,155.55172842295468,25.589946928364178,0.0,0.0,0.0,0.0,1,1,0
204, '1 ',1,21,21,43.45468211758844,9.554426823136628,0.0,0.0,0.0,0.0,1,1,0
205, '1 ',1,21,21,41.199030601176666,8.760076905972138,0.0,0.0,0.0,0.0,1,1,0
206, '1 ',1,21,22,83.56034514549225,17.13505554825291,0.0,0.0,0.0,0.0,1,1,0
207, '1 ',1,21,22,89.67312697492889,21.023346146318364,0.0,0.0,0.0,0.0,1,1,0
208, '1 ',1,21,22,85.65888789984974,25.487426567077172,0.0,0.0,0.0,0.0,1,1,0
209, '1 ',1,21,23,126.41834942847841,19.311728777795658,0.0,0.0,0.0,0.0,1,1,0
210, '1 ',1,21,23,121.62090738997001,23.22269787066802,0.0,0.0,0.0,0.0,1,1,0
211, '1 ',1,21,23,0.0,0.0,0.0,0.0,0.0,0.0,1,1,0
212, '1 ',1,21,23,0.0,0.0,0.0,0.0,0.0,0.0,1,1,0
213, '1 ',1,22,24,136.7817506391937,44.719243393179774,0.0,0.0,0.0,0.0,1,1,0
214, '1 ',1,22,26,101.84307313762474,20.80302238910864,0.0,0.0,0.0,0.0,1,1,0
215, '1 ',1,22,26,226.2245621630785,57.190699266672134,0.0,0.0,0.0,0.0,1,1,0
216, '1 ',1,22,26,71.83852896122262,11.121254237869753,0.0,0.0,0.0,0.0,1,1,0
217, '1 ',1,22,27,0.0,0.0,0.0,0.0,0.0,0.0,1,1,0
218, '1 ',1,22,27,233.59893571316223,53.564415781936795,0.0,0.0,0.0,0.0,1,1,0
219, '1 ',1,22,25,151.80771047213508,31.369797445050626,0.0,0.0,0.0,0.0,1,1,0
220, '1 ',1,22,25,63.66903790158033,13.272414292881544,0.0,0.0,0.0,0.0,1,1,0
221, '1 ',1,22,27,0.0,0.0,0.0,0.0,0.0,0.0,1,1,0
222, '1 ',1,22,27,0.0,0.0,0.0,0.0,0.0,0.0,1,1,0
223, '1 ',1,22,25,0.0,0.0,0.0,0.0,0.0,0.0,1,1,0
224, '1 ',1,22,26,0.0,0.0,0.0,0.0,0.0,0.0,1,1,0
301, '1 ',1,31,31,77.49165212301928,17.465595431616997,0.0,0.0,0.0,0.0,1,1,0
302, '1 ',1,31,32,83.84167591482594,16.839025243593383,0.0,0.0,0.0,0.0,1,1,0
303, '1 ',1,31,31,134.0220109619759,19.341563931384307,0.0,0.0,0.0,0.0,1,1,0
304, '1 ',1,31,31,54.95680815206374,11.469460039943922,0.0,0.0,0.0,0.0,1,1,0
305, '1 ',1,31,31,52.48114577953793,10.46319418379087,0.0,0.0,0.0,0.0,1,1,0
306, '1 ',1,31,32,85.75807396917344,14.696965421564878,0.0,0.0,0.0,0.0,1,1,0
307, '1 ',1,31,32,87.16221361244679,19.68972087318194,0.0,0.0,0.0,0.0,1,1,0
308, '1 ',1,31,32,112.18487913495325,23.923122108807085,0.0,0.0,0.0,0.0,1,1,0
309, '1 ',1,31,33,86.43597614772501,18.232934070875867,0.0,0.0,0.0,0.0,1,1,0
310, '1 ',1,31,33,138.08106694592254,29.411113833295182,0.0,0.0,0.0,0.0,1,1,0
311, '1 ',1,31,33,0.0,0.0,0.0,0.0,0.0,0.0,1,1,0
312, '1 ',1,31,33,0.0,0.0,0.0,0.0,0.0,0.0,1,1,0
313, '1 ',1,32,34,221.45937911886122,35.45561889985129,0.0,0.0,0.0,0.0,1,1,0
314, '1 ',1,32,36,153.61688829505576,29.098494044098587,0.0,0.0,0.0,0.0,1,1,0
315, '1 ',1,32,36,250.42534401833078,40.805125613486766,0.0,0.0,0.0,0.0,1,1,0
316, '1 ',1,32,36,64.61838289308362,12.64187941724807,0.0,0.0,0.0,0.0,1,1,0
317, '1 ',1,32,37,0.0,0.0,0.0,0.0,0.0,0.0,1,1,0
318, '1 ',1,32,37,177.3575200897779,44.07732622073573,0.0,0.0,0.0,0.0,1,1,0
319, '1 ',1,32,35,120.82798269661507,22.95663719205139,0.0,0.0,0.0,0.0,1,1,0
320, '1 ',1,32,35,114.7445372255802,17.432449141412416,0.0,0.0,0.0,0.0,1,1,0
321, '1 ',1,32,37,0.0,0.0,0.0,0.0,0.0,0.0,1,1,0
322, '1 ',1,32,37,0.0,0.0,0.0,0.0,0.0,0.0,1,1,0
323, '1 ',1,32,35,0.0,0.0,0.0,0.0,0.0,0.0,1,1,0
324, '1 ',1,32,36,0.0,0.0,0.0,0.0,0.0,0.0,1,1,0
325, '1 ',1,32,35,0.0,0.0,0.0,0.0,0.0,0.0,1,1,0
0 / END OF LOAD DATA, BEGIN FIXED SHUNT DATA
0 / END OF FIXED SHUNT DATA, BEGIN GENERATOR DATA
101,1,10,0,9.653810656163841,2.053714101668448,1.035,0,24,0,1,0,0,1,1,100,20.231977180577815,15.292940151887015,1,1,0,1
101,2,10,0,12.212468465324493,3.160997721366586,1.035,0,24,0,1,0,0,1,1,100,25.070836652070287,20.121712979320442,1,1,0,1
101,3,76,14.1,23.075066068209708,-16.722485932754353,1.035,0,89,0,1,0,0,1,1,100,84.73853230513633,8.340983086004869,1,1,0,1
101,4,76,14.1,34.82903759786859,-29.92072336212732,1.035,0,89,0,1,0,0,1,1,100,61.84770919643342,24.81889819487648,1,1,0,1
102,5,10,0,11.25132067175582,-1.4923206623643654,1.035,0,24,0,1,0,0,1,1,100,14.339007593691349,10.886571996500717,1,1,0,1
102,6,10,0,9.823856309521943,-1.7935605151578784,1.035,0,24,0,1,0,0,1,1,100,14.677291111089287,10.990768908420577,1,1,0,1
102,7,76,7,24.09641170687973,-15.9639717519749,1.035,0,89,0,1,0,0,1,1,100,57.46198729593306,10.346152596212924,1,1,0,1
102,8,76,7,26.284662494435906,-37.684323384659365,1.035,0,89,0,1,0,0,1,1,100,81.57684365455061,36.239022946096966,1,1,0,1
107,9,80,17.2,54.7596813859418,-17.916238334029913,1.025,0,118,0,1,0,0,1,1,100,107.96967382542788,32.73516033892518,1,1,0,1
107,10,80,17.2,63.54769818484783,-6.840538116171956,1.025,0,118,0,1,0,0,1,1,100,90.65062173176557,25.306813907809556,1,1,0,1
107,11,80,17.2,46.96422674506903,-12.60338752437383,1.025,0,118,0,1,0,0,1,1,100,96.3482137909159,31.296496621798724,1,1,0,1
113,12,95.1,40.7,62.57657987624406,-7.602281078696258,1.02,0,232,0,1,0,0,1,1,100,192.42994045102967,33.31730143978254,1,1,0,1
113,13,95.1,40.7,98.73997103050351,38.84592217952013,1.02,0,232,0,1,0,0,1,1,100,238.537618381856,125.64260873085816,1,1,0,1
113,14,95.1,40.7,67.98720424249768,5.629805780947208,1.02,0,232,0,1,0,0,1,1,100,198.97990151280536,78.1618884910503,1,1,0,1
114,15,0,13.7,143.47916995175183,-175.40698123630136,0.98,0,100,0,1,0,0,1,1,100,0.0,0.0,1,1,0,1
115,16,12,0,4.614247385133058,-0.20102444188669288,1.014,0,14,0,1,0,0,1,1,100,13.892156116850673,5.588787677027284,1,1,0,1
115,17,12,0,6.058283707033843,0.6592246731743225,1.014,0,14,0,1,0,0,1,1,100,10.586576842702925,0.5687517556920643,1,1,0,1
115,18,12,0,5.754003683757038,0.9034925806336114,1.014,0,14,0,1,0,0,1,1,100,9.570715666003524,2.6887716560438273,1,1,0,1
115,19,12,0,5.442831100802868,1.0251747468486432,1.014,0,14,0,1,0,0,1,1,100,9.402225203253328,7.150386140568211,1,1,0,1
115,20,12,0,5.216347493045031,-0.8541939460672445,1.014,0,14,0,1,0,0,1,1,100,12.832817518897356,5.935545857883992,1,1,0,1
115,21,155,0.05,98.08883583545686,-60.2677755630575,1.014,0,182,0,1,0,0,1,1,100,194.38837958220392,83.03960894992342,1,1,0,1
116,22,155,25.22,70.98115030676126,-70.96873257029802,1.017,0,182,0,1,0,0,1,1,100,199.95087024988607,91.6470508510014,1,1,0,1
118,23,400,137.4,217.0216058567166,20.154585335403652,1.05,0,471,0,1,0,0,1,1,100,355.3982676938176,133.84973326232284,1,1,0,1
121,24,400,108.2,227.07826413214204,-6.795189068652718,1.05,0,471,0,1,0,0,1,1,100,453.6172746121883,204.71924551296976,1,1,0,1
122,25,50,-4.96,20.04135779514909,-6.837745481543241,1.05,0,53,0,1,0,0,1,1,100,63.88086082646623,22.42512628203258,1,1,0,1
122,26,50,-4.96,15.88983724117279,-6.277634986955674,1.05,0,53,0,1,0,0,1,1,100,38.05263873189688,10.703136040029573,1,1,0,1
122,27,50,-4.96,14.997138491272926,-11.071473972965032,1.05,0,53,0,1,0,0,1,1,100,44.21613174723461,29.65925143438873,1,1,0,1
122,28,50,-4.96,14.044446124136448,-10.999228961486372,1.05,0,53,0,1,0,0,1,1,100,61.01797837298364,6.927909634541734,1,1,0,1
122,29,50,-4.96,16.71046016663313,-11.365199818089604,1.05,0,53,0,1,0,0,1,1,100,51.801369863096625,1.7688826541416347,1,1,0,1
122,30,50,-4.96,12.017392524331807,-15.384447984676807,1.05,0,53,0,1,0,0,1,1,100,56.06565514579416,4.8239208572539445,1,1,0,1
123,31,155,31.79,101.17580496519804,-34.81996778957546,1.05,0,182,0,1,0,0,1,1,100,192.19548418442722,102.95592273343358,1,1,0,1
123,32,155,31.79,98.21362843737006,-31.98733191145584,1.05,0,182,0,1,0,0,1,1,100,159.23568141646683,31.53262080666609,1,1,0,1
123,33,350,71.78,173.81149185122922,31.432929364964366,1.05,0,412,0,1,0,0,1,1,100,383.0118215386755,185.68900052644307,1,1,0,1
201,34,10,0,11.113682722207159,-1.255972774699332,1.035,0,24,0,1,0,0,1,1,100,22.587694191373885,18.036711706919597,1,1,0,1
201,35,10,0,12.1726053673774,2.364971273113042,1.035,0,24,0,1,0,0,1,1,100,19.867026367224753,15.607114461166784,1,1,0,1
201,36,76,14.1,25.934354664757848,-27.775017078965902,1.035,0,89,0,1,0,0,1,1,100,74.63646661378444,3.132234685942535,1,1,0,1
201,37,76,14.1,28.800547175109386,-28.546107193455107,1.035,0,89,0,1,0,0,1,1,100,58.30843246057629,13.38435372710228,1,1,0,1
202,38,10,0,11.833018328528851,2.436446155887097,1.035,0,24,0,1,0,0,1,1,100,19.07570479437709,15.836892926497386,1,1,0,1
202,39,10,0,10.164452853612602,-2.8044050093740225,1.035,0,24,0,1,0,0,1,1,100,24.371343402191997,20.59942666639574,1,1,0,1
202,40,76,7,37.33156811306253,-2.757075577741489,1.035,0,89,0,1,0,0,1,1,100,65.9017274081707,0.950024478733539,1,1,0,1
202,41,76,7,36.415432785172015,-31.243341946043074,1.035,0,89,0,1,0,0,1,1,100,68.26850272640586,12.7148069396615,1,1,0,1
207,42,80,17.2,49.429009510204196,-3.038879237137735,1.025,0,118,0,1,0,0,1,1,100,72.27599306963384,38.19828677585881,1,1,0,1
207,43,80,17.2,59.73174725566059,-0.4016136350110102,1.025,0,118,0,1,0,0,1,1,100,94.87336843274534,3.516888846643269,1,1,0,1
207,44,80,17.2,45.41778618749231,-17.942553780041628,1.025,0,118,0,1,0,0,1,1,100,81.54290270060301,7.920305385487154,1,1,0,1
213,45,95.1,40.7,99.87137965485454,26.547852516174316,1.02,0,232,0,1,0,0,1,1,100,200.02306592911484,105.12654824238506,1,1,0,1
213,46,95.1,40.7,75.56201795861125,-6.145865935832262,1.02,0,232,0,1,0,0,1,1,100,139.07419736566953,46.53632449097931,1,1,0,1
213,47,95.1,40.7,81.63586097210646,-11.721210166811943,1.02,0,232,0,1,0,0,1,1,100,202.83843680485154,108.49364935199266,1,1,0,1
214,48,0,13.68,239.7913613729179,-28.609812560025603,0.98,0,100,0,1,0,0,1,1,100,0.0,0.0,1,1,0,1
215,49,12,0,5.700068803969771,-2.0668796343728895,1.014,0,14,0,1,0,0,1,1,100,14.319530230388047,4.59398038633168,1,1,0,1
215,50,12,0,6.693111537583172,0.2659574381075789,1.014,0,14,0,1,0,0,1,1,100,14.162540219910442,6.950317085422576,1,1,0,1
215,51,12,0,7.429258102085441,2.296329010929913,1.014,0,14,0,1,0,0,1,1,100,14.57020695358515,4.631801823377613,1,1,0,1
215,52,12,0,5.667180184833706,-1.9757550498470655,1.014,0,14,0,1,0,0,1,1,100,9.297633067891,0.8816963068395847,1,1,0,1
215,53,12,0,7.215074947290123,1.5230442292056985,1.014,0,14,0,1,0,0,1,1,100,14.625123798474672,3.315322220250968,1,1,0,1
215,54,155,0.048,56.31807750090957,-111.73270586691797,1.014,0,182,0,1,0,0,1,1,100,118.63629741128534,13.65424606255256,1,1,0,1
216,55,155,25.22,65.91481225565076,-40.73919569700955,1.017,0,182,0,1,0,0,1,1,100,118.79981402796693,22.41229533110878,1,1,0,1
218,56,400,137.4,191.94014634005725,-16.071651219390333,1.05,0,471,0,1,0,0,1,1,100,504.01963634416467,258.30594791565096,1,1,0,1
221,57,400,108.2,150.20618891343474,-123.17056806292385,1.05,0,471,0,1,0,0,1,1,100,375.27975717559457,117.73586854804307,1,1,0,1
222,58,50,-4.96,12.37231495603919,-14.564843448996545,1.05,0,53,0,1,0,0,1,1,100,45.73218266712502,3.528974278232448,1,1,0,1
222,59,50,-4.96,14.204127177596092,-18.26077837506309,1.05,0,53,0,1,0,0,1,1,100,54.10783355357125,6.2898424942977655,1,1,0,1
222,60,50,-4.96,11.777652558684348,-18.047109913546592,1.05,0,53,0,1,0,0,1,1,100,47.33806496486068,23.613720645971764,1,1,0,1
222,61,50,-4.96,20.530254115164283,0.0785753604956021,1.05,0,53,0,1,0,0,1,1,100,58.78420035354793,13.635367462411523,1,1,0,1
222,62,50,-4.96,13.202905220538376,-13.349026546254755,1.05,0,53,0,1,0,0,1,1,100,51.18576525943354,30.563284179875236,1,1,0,1
222,63,50,-4.96,14.248043218255043,-11.70397360222414,1.05,0,53,0,1,0,0,1,1,100,57.41353126708418,0.9024248295463622,1,1,0,1
223,64,155,31.79,89.78191397339106,-39.02398637542501,1.05,0,182,0,1,0,0,1,1,100,178.40359124331735,100.54314082119382,1,1,0,1
223,65,155,31.79,93.9382490478456,-26.522227119188756,1.05,0,182,0,1,0,0,1,1,100,159.18902039527893,54.43730552549242,1,1,0,1
223,66,350,71.78,116.54056131374091,-105.1345792284701,1.05,0,412,0,1,0,0,1,1,100,364.61349211633205,210.9176038140431,1,1,0,1
301,67,10,0,7.929935431573539,-3.8362011476419875,1.035,0,24,0,1,0,0,1,1,100,24.15420910809189,19.221378309903667,1,1,0,1
301,68,10,0,9.640618674922734,0.41915712459012866,1.035,0,24,0,1,0,0,1,1,100,18.055973870679736,14.358462280910462,1,1,0,1
301,69,76,14.1,21.467081147711724,-35.38266395032405,1.035,0,89,0,1,0,0,1,1,100,92.39758953601121,43.81310767456888,1,1,0,1
301,70,76,14.1,35.53308409592137,-25.016237736446783,1.035,0,89,0,1,0,0,1,1,100,75.68978449013085,31.84166920285673,1,1,0,1
302,71,10,0,10.021287533454597,2.1325766332447538,1.035,0,24,0,1,0,0,1,1,100,14.935640080831945,10.617325076078997,1,1,0,1
302,72,10,0,7.727864008396863,-4.542183975689116,1.035,0,24,0,1,0,0,1,1,100,18.993980118073523,14.049282669220121,1,1,0,1
302,73,76,7,29.26483685988933,-28.776800134452053,1.035,0,89,0,1,0,0,1,1,100,84.46390230823307,35.436879776902494,1,1,0,1
302,74,76,7,36.09524332545698,-19.55786881968379,1.035,0,89,0,1,0,0,1,1,100,73.5428194930777,30.08386225729574,1,1,0,1
307,75,80,17.2,74.77414533868432,14.538301968947053,1.025,0,118,0,1,0,0,1,1,100,113.04732452612369,34.03299825848079,1,1,0,1
307,76,80,17.2,71.19146928749979,-5.694157188758254,1.025,0,118,0,1,0,0,1,1,100,85.97665041685104,24.756409575929865,1,1,0,1
307,77,80,17.2,50.54591861832887,-26.632747381925583,1.025,0,118,0,1,0,0,1,1,100,122.61713075451554,63.94570110714996,1,1,0,1
313,78,95.1,40.7,100.76862830296159,30.984062768518925,1.02,0,232,0,1,0,0,1,1,100,162.72169432449152,71.46086226197889,1,1,0,1
313,79,95.1,40.7,60.94653710722923,-22.04264586791396,1.02,0,232,0,1,0,0,1,1,100,217.51451456793586,84.95953765230954,1,1,0,1
313,80,95.1,40.7,60.00451608747244,3.6807425133883953,1.02,0,232,0,1,0,0,1,1,100,207.94997225506233,51.079846345826525,1,1,0,1
314,81,0,13.68,147.87416321225464,-48.0122799356468,0.98,0,100,0,1,0,0,1,1,100,0.0,0.0,1,1,0,1
315,82,12,0,5.40767966536805,0.9923418665304782,1.014,0,14,0,1,0,0,1,1,100,15.18265864569694,7.882931703664364,1,1,0,1
315,83,12,0,6.363598263356835,-0.17505720611661602,1.014,0,14,0,1,0,0,1,1,100,14.239050719887018,6.545548687130213,1,1,0,1
315,84,12,0,4.624219696596264,-1.0926631296984857,1.014,0,14,0,1,0,0,1,1,100,15.093285899050535,3.2158315398171577,1,1,0,1
315,85,12,0,5.853736810572446,-1.1693872441537678,1.014,0,14,0,1,0,0,1,1,100,8.906671029701828,1.643564406707883,1,1,0,1
315,86,12,0,5.572301211766899,0.6320496303029355,1.014,0,14,0,1,0,0,1,1,100,8.599671881832181,0.3987587502971284,1,1,0,1
315,87,155,0.048,101.61381379887462,-8.554579379502684,1.014,0,182,0,1,0,0,1,1,100,200.64716908521953,82.44167618299836,1,1,0,1
316,88,155,25.22,101.50859887525439,-3.338560496456921,1.017,0,182,0,1,0,0,1,1,100,112.31070540216751,2.343741567304832,1,1,0,1
318,89,400,137.4,249.66514753177762,72.2031865036115,1.05,0,471,0,1,0,0,1,1,100,496.56476378440857,214.60111716296524,1,1,0,1
321,90,400,108.2,212.24717205390334,-17.19268104294315,1.05,0,471,0,1,0,0,1,1,100,475.0013285316527,105.69503657054156,1,1,0,1
322,91,50,-4.96,13.926804108172655,-8.579079557210205,1.05,0,53,0,1,0,0,1,1,100,62.574443679768585,23.991283450741314,1,1,0,1
322,92,50,-4.96,13.81219123378396,-12.616586686484517,1.05,0,53,0,1,0,0,1,1,100,42.726951476652175,38.3921759494972,1,1,0,1
322,93,50,-4.96,20.74688785150647,-10.420710413623603,1.05,0,53,0,1,0,0,1,1,100,43.23737162631005,40.620510341054576,1,1,0,1
322,94,50,-4.96,18.83389494419098,-11.219832745194434,1.05,0,53,0,1,0,0,1,1,100,58.289473990444094,21.188561010640115,1,1,0,1
322,95,50,-4.96,17.930847322195767,-13.51122559299693,1.05,0,53,0,1,0,0,1,1,100,57.58168040309102,16.465312913060195,1,1,0,1
322,96,50,-4.96,15.611846471577882,-9.748844490200282,1.05,0,53,0,1,0,0,1,1,100,52.05494031542912,33.71336684526289,1,1,0,1
323,97,155,31.79,74.19736243784428,-18.826124865561724,1.05,0,182,0,1,0,0,1,1,100,114.55398516240528,29.800090553925827,1,1,0,1
323,98,155,31.79,86.48561242222786,-54.99548539612442,1.05,0,182,0,1,0,0,1,1,100,166.48502663709223,78.30620436015306,1,1,0,1
323,99,350,71.78,162.5566658237949,19.806664537172765,1.05,0,412,0,1,0,0,1,1,100,336.6577267716639,85.67800741968674,1,1,0,1
0 / END OF GENERATOR DATA, BEGIN BRANCH DATA
101,102,1,0.003,0.014,0.461,210.0,231.6,240.0,0,0,0,0,1,1,0,1,1
101,103,1,0.055,0.211,0.057,210.0,249.6,264.0,0,0,0,0,1,1,0,1,1
101,105,1,0.022,0.085,0.023,210.0,249.6,264.0,0,0,0,0,1,1,0,1,1
102,104,1,0.033,0.127,0.034,210.0,249.6,264.0,0,0,0,0,1,1,0,1,1
102,106,1,0.05,0.192,0.052,210.0,249.6,264.0,0,0,0,0,1,1,0,1,1
103,109,1,0.031,0.119,0.032,210.0,249.6,264.0,0,0,0,0,1,1,0,1,1
104,109,1,0.027,0.104,0.028,210.0,249.6,264.0,0,0,0,0,1,1,0,1,1
105,110,1,0.023,0.088,0.024,210.0,249.6,264.0,0,0,0,0,1,1,0,1,1
106,110,1,0.014,0.061,2.459,210.0,231.6,240.0,0,0,0,0,1,1,0,1,1
107,108,1,0.016,0.061,0.017,210.0,249.6,264.0,0,0,0,0,1,1,0,1,1
107,203,1,0.042,0.161,0.044,210.0,249.6,264.0,0,0,0,0,1,1,0,1,1
108,109,1,0.043,0.165,0.045,210.0,249.6,264.0,0,0,0,0,1,1,0,1,1
108,110,1,0.043,0.165,0.045,210.0,249.6,264.0,0,0,0,0,1,1,0,1,1
111,113,1,0.006,0.048,0.1,600.0,720.0,750.0,0,0,0,0,1,1,0,1,1
111,114,1,0.005,0.042,0.088,600.0,720.0,750.0,0,0,0,0,1,1,0,1,1
112,113,1,0.006,0.048,0.1,600.0,720.0,750.0,0,0,0,0,1,1,0,1,1
112,123,1,0.012,0.097,0.203,600.0,720.0,750.0,0,0,0,0,1,1,0,1,1
113,123,1,0.011,0.087,0.182,600.0,720.0,750.0,0,0,0,0,1,1,0,1,1
113,215,1,0.01,0.075,0.158,600.0,720.0,750.0,0,0,0,0,1,1,0,1,1
114,116,1,0.005,0.059,0.082,600.0,720.0,750.0,0,0,0,0,1,1,0,1,1
115,116,1,0.002,0.017,0.036,600.0,720.0,750.0,0,0,0,0,1,1,0,1,1
115,121,1,0.006,0.049,0.103,600.0,720.0,750.0,0,0,0,0,1,1,0,1,1
115,121,2,0.006,0.049,0.103,600.0,720.0,750.0,0,0,0,0,1,1,0,1,1
115,124,1,0.007,0.052,0.109,600.0,720.0,750.0,0,0,0,0,1,1,0,1,1
116,117,1,0.003,0.026,0.055,600.0,720.0,750.0,0,0,0,0,1,1,0,1,1
116,119,1,0.003,0.023,0.049,600.0,720.0,750.0,0,0,0,0,1,1,0,1,1
117,118,1,0.002,0.014,0.03,600.0,720.0,750.0,0,0,0,0,1,1,0,1,1
117,122,1,0.014,0.105,0.221,600.0,720.0,750.0,0,0,0,0,1,1,0,1,1
118,121,1,0.003,0.026,0.055,600.0,720.0,750.0,0,0,0,0,1,1,0,1,1
118,121,2,0.003,0.026,0.055,600.0,720.0,750.0,0,0,0,0,1,1,0,1,1
119,120,1,0.005,0.04,0.083,600.0,720.0,750.0,0,0,0,0,1,1,0,1,1
119,120,2,0.005,0.04,0.083,600.0,720.0,750.0,0,0,0,0,1,1,0,1,1
120,123,1,0.003,0.022,0.046,600.0,720.0,750.0,0,0,0,0,1,1,0,1,1
120,123,2,0.003,0.022,0.046,600.0,720.0,750.0,0,0,0,0,1,1,0,1,1
121,122,1,0.009,0.068,0.142,600.0,720.0,750.0,0,0,0,0,1,1,0,1,1
123,217,1,0.01,0.074,0.155,600.0,720.0,750.0,0,0,0,0,1,1,0,1,1
201,202,1,0.003,0.014,0.461,210.0,231.6,240.0,0,0,0,0,1,1,0,1,1
201,203,1,0.055,0.211,0.057,210.0,249.6,264.0,0,0,0,0,1,1,0,1,1
201,205,1,0.022,0.085,0.023,210.0,249.6,264.0,0,0,0,0,1,1,0,1,1
202,204,1,0.033,0.127,0.034,210.0,249.6,264.0,0,0,0,0,1,1,0,1,1
202,206,1,0.05,0.192,0.052,210.0,249.6,264.0,0,0,0,0,1,1,0,1,1
203,209,1,0.031,0.119,0.032,210.0,249.6,264.0,0,0,0,0,1,1,0,1,1
204,209,1,0.027,0.104,0.028,210.0,249.6,264.0,0,0,0,0,1,1,0,1,1
205,210,1,0.023,0.088,0.024,210.0,249.6,264.0,0,0,0,0,1,1,0,1,1
206,210,1,0.014,0.061,2.459,210.0,231.6,240.0,0,0,0,0,1,1,0,1,1
207,208,1,0.016,0.061,0.017,210.0,249.6,264.0,0,0,0,0,1,1,0,1,1
208,209,1,0.043,0.165,0.045,210.0,249.6,264.0,0,0,0,0,1,1,0,1,1
208,210,1,0.043,0.165,0.045,210.0,249.6,264.0,0,0,0,0,1,1,0,1,1
211,213,1,0.006,0.048,0.1,600.0,720.0,750.0,0,0,0,0,1,1,0,1,1
211,214,1,0.005,0.042,0.088,600.0,720.0,750.0,0,0,0,0,1,1,0,1,1
212,213,1,0.006,0.048,0.1,600.0,720.0,750.0,0,0,0,0,1,1,0,1,1
212,223,1,0.012,0.097,0.203,600.0,720.0,750.0,0,0,0,0,1,1,0,1,1
213,223,1,0.011,0.087,0.182,600.0,720.0,750.0,0,0,0,0,1,1,0,1,1
214,216,1,0.005,0.059,0.082,600.0,720.0,750.0,0,0,0,0,1,1,0,1,1
215,216,1,0.002,0.017,0.036,600.0,720.0,750.0,0,0,0,0,1,1,0,1,1
215,221,1,0.006,0.049,0.103,600.0,720.0,750.0,0,0,0,0,1,1,0,1,1
215,221,2,0.006,0.049,0.103,600.0,720.0,750.0,0,0,0,0,1,1,0,1,1
215,224,1,0.007,0.052,0.109,600.0,720.0,750.0,0,0,0,0,1,1,0,1,1
216,217,1,0.003,0.026,0.055,600.0,720.0,750.0,0,0,0,0,1,1,0,1,1
216,219,1,0.003,0.023,0.049,600.0,720.0,750.0,0,0,0,0,1,1,0,1,1
217,218,1,0.002,0.014,0.03,600.0,720.0,750.0,0,0,0,0,1,1,0,1,1
217,222,1,0.014,0.105,0.221,600.0,720.0,750.0,0,0,0,0,1,1,0,1,1
218,221,1,0.003,0.026,0.055,600.0,720.0,750.0,0,0,0,0,1,1,0,1,1
218,221,2,0.003,0.026,0.055,600.0,720.0,750.0,0,0,0,0,1,1,0,1,1
219,220,1,0.005,0.04,0.083,600.0,720.0,750.0,0,0,0,0,1,1,0,1,1
219,220,2,0.005,0.04,0.083,600.0,720.0,750.0,0,0,0,0,1,1,0,1,1
220,223,1,0.003,0.022,0.046,600.0,720.0,750.0,0,0,0,0,1,1,0,1,1
220,223,2,0.003,0.022,0.046,600.0,720.0,750.0,0,0,0,0,1,1,0,1,1
221,222,1,0.009,0.068,0.142,600.0,720.0,750.0,0,0,0,0,1,1,0,1,1
301,302,1,0.003,0.014,0.461,210.0,231.6,240.0,0,0,0,0,1,1,0,1,1
301,303,1,0.055,0.211,0.057,210.0,249.6,264.0,0,0,0,0,1,1,0,1,1
301,305,1,0.022,0.085,0.023,210.0,249.6,264.0,0,0,0,0,1,1,0,1,1
302,304,1,0.033,0.127,0.034,210.0,249.6,264.0,0,0,0,0,1,1,0,1,1
302,306,1,0.05,0.192,0.052,210.0,249.6,264.0,0,0,0,0,1,1,0,1,1
303,309,1,0.031,0.119,0.032,210.0,249.6,264.0,0,0,0,0,1,1,0,1,1
304,309,1,0.027,0.104,0.028,210.0,249.6,264.0,0,0,0,0,1,1,0,1,1
305,310,1,0.023,0.088,0.024,210.0,249.6,264.0,0,0,0,0,1,1,0,1,1
306,310,1,0.014,0.061,2.459,210.0,231.6,240.0,0,0,0,0,1,1,0,1,1
307,308,1,0.016,0.061,0.017,210.0,249.6,264.0,0,0,0,0,1,1,0,1,1
308,309,1,0.043,0.165,0.045,210.0,249.6,264.0,0,0,0,0,1,1,0,1,1
308,310,1,0.043,0.165,0.045,210.0,249.6,264.0,0,0,0,0,1,1,0,1,1
311,313,1,0.006,0.048,0.1,600.0,720.0,750.0,0,0,0,0,1,1,0,1,1
311,314,1,0.005,0.042,0.088,600.0,720.0,750.0,0,0,0,0,1,1,0,1,1
312,313,1,0.006,0.048,0.1,600.0,720.0,750.0,0,0,0,0,1,1,0,1,1
312,323,1,0.012,0.097,0.203,600.0,720.0,750.0,0,0,0,0,1,1,0,1,1
313,323,1,0.011,0.087,0.182,600.0,720.0,750.0,0,0,0,0,1,1,0,1,1
314,316,1,0.005,0.059,0.082,600.0,720.0,750.0,0,0,0,0,1,1,0,1,1
315,316,1,0.002,0.017,0.036,600.0,720.0,750.0,0,0,0,0,1,1,0,1,1
315,321,1,0.006,0.049,0.103,600.0,720.0,750.0,0,0,0,0,1,1,0,1,1
315,321,2,0.006,0.049,0.103,600.0,720.0,750.0,0,0,0,0,1,1,0,1,1
315,324,1,0.007,0.052,0.109,600.0,720.0,750.0,0,0,0,0,1,1,0,1,1
316,317,1,0.003,0.026,0.055,600.0,720.0,750.0,0,0,0,0,1,1,0,1,1
316,319,1,0.003,0.023,0.049,600.0,720.0,750.0,0,0,0,0,1,1,0,1,1
317,318,1,0.002,0.014,0.03,600.0,720.0,750.0,0,0,0,0,1,1,0,1,1
317,322,1,0.014,0.105,0.221,600.0,720.0,750.0,0,0,0,0,1,1,0,1,1
318,223,1,0.013,0.104,0.218,600.0,720.0,750.0,0,0,0,0,1,1,0,1,1
318,321,1,0.003,0.026,0.055,600.0,720.0,750.0,0,0,0,0,1,1,0,1,1
318,321,2,0.003,0.026,0.055,600.0,720.0,750.0,0,0,0,0,1,1,0,1,1
319,320,1,0.005,0.04,0.083,600.0,720.0,750.0,0,0,0,0,1,1,0,1,1
319,320,2,0.005,0.04,0.083,600.0,720.0,750.0,0,0,0,0,1,1,0,1,1
320,323,1,0.003,0.022,0.046,600.0,720.0,750.0,0,0,0,0,1,1,0,1,1
320,323,2,0.003,0.022,0.046,600.0,720.0,750.0,0,0,0,0,1,1,0,1,1
321,322,1,0.009,0.068,0.142,600.0,720.0,750.0,0,0,0,0,1,1,0,1,1
323,325,1,0,0.009,0,866.4,1071.6,1071.6,0,0,0,0,1,1,0,1,1
0 / END OF BRANCH DATA, BEGIN TRANSFORMER DATA
  103 ,  124 , 0,  1 , 1, 1, 1, 0, 0, 2, '            ',  1 , 1, 1
   0.002000 ,  0.084000 ,  100.000000
   1.015000 , 0,  0.000000 ,  400.000000 ,  510.000000 ,  600.000000 , 0, 0,  1.10 ,  0.90 ,  1.10 ,  0.90 , 33, 0, 0, 0
   1.000000, 0
  109 ,  111 , 0,  1 , 1, 1, 1, 0, 0, 2, '            ',  1 , 1, 1
   0.002000 ,  0.084000 ,  100.000000
   1.030000 , 0,  0.000000 ,  400.000000 ,  510.000000 ,  600.000000 , 0, 0,  1.10 ,  0.90 ,  1.10 ,  0.90 , 33, 0, 0, 0
   1.000000, 0
  109 ,  112 , 0,  1 , 1, 1, 1, 0, 0, 2, '            ',  1 , 1, 1
   0.002000 ,  0.084000 ,  100.000000
   1.030000 , 0,  0.000000 ,  400.000000 ,  510.000000 ,  600.000000 , 0, 0,  1.10 ,  0.90 ,  1.10 ,  0.90 , 33, 0, 0, 0
   1.000000, 0
  110 ,  111 , 0,  1 , 1, 1, 1, 0, 0, 2, '            ',  1 , 1, 1
   0.002000 ,  0.084000 ,  100.000000
   1.015000 , 0,  0.000000 ,  400.000000 ,  510.000000 ,  600.000000 , 0, 0,  1.10 ,  0.90 ,  1.10 ,  0.90 , 33, 0, 0, 0
   1.000000, 0
  110 ,  112 , 0,  1 , 1, 1, 1, 0, 0, 2, '            ',  1 , 1, 1
   0.002000 ,  0.084000 ,  100.000000
   1.015000 , 0,  0.000000 ,  400.000000 ,  510.000000 ,  600.000000 , 0, 0,  1.10 ,  0.90 ,  1.10 ,  0.90 , 33, 0, 0, 0
   1.000000, 0
  203 ,  224 , 0,  1 , 1, 1, 1, 0, 0, 2, '            ',  1 , 1, 1
   0.002000 ,  0.084000 ,  100.000000
   1.015000 , 0,  0.000000 ,  400.000000 ,  510.000000 ,  600.000000 , 0, 0,  1.10 ,  0.90 ,  1.10 ,  0.90 , 33, 0, 0, 0
   1.000000, 0
  209 ,  211 , 0,  1 , 1, 1, 1, 0, 0, 2, '            ',  1 , 1, 1
   0.002000 ,  0.084000 ,  100.000000
   1.030000 , 0,  0.000000 ,  400.000000 ,  510.000000 ,  600.000000 , 0, 0,  1.10 ,  0.90 ,  1.10 ,  0.90 , 33, 0, 0, 0
   1.000000, 0
  209 ,  212 , 0,  1 , 1, 1, 1, 0, 0, 2, '            ',  1 , 1, 1
   0.002000 ,  0.084000 ,  100.000000
   1.030000 , 0,  0.000000 ,  400.000000 ,  510.000000 ,  600.000000 , 0, 0,  1.10 ,  0.90 ,  1.10 ,  0.90 , 33, 0, 0, 0
   1.000000, 0
  210 ,  211 , 0,  1 , 1, 1, 1, 0, 0, 2, '            ',  1 , 1, 1
   0.002000 ,  0.084000 ,  100.000000
   1.015000 , 0,  0.000000 ,  400.000000 ,  510.000000 ,  600.000000 , 0, 0,  1.10 ,  0.90 ,  1.10 ,  0.90 , 33, 0, 0, 0
   1.000000, 0
  210 ,  212 , 0,  1 , 1, 1, 1, 0, 0, 2, '            ',  1 , 1, 1
   0.002000 ,  0.084000 ,  100.000000
   1.015000 , 0,  0.000000 ,  400.000000 ,  510.000000 ,  600.000000 , 0, 0,  1.10 ,  0.90 ,  1.10 ,  0.90 , 33, 0, 0, 0
   1.000000, 0
  303 ,  324 , 0,  1 , 1, 1, 1, 0, 0, 2, '            ',  1 , 1, 1
   0.002000 ,  0.084000 ,  100.000000
   1.015000 , 0,  0.000000 ,  400.000000 ,  510.000000 ,  600.000000 , 0, 0,  1.10 ,  0.90 ,  1.10 ,  0.90 , 33, 0, 0, 0
   1.000000, 0
  309 ,  311 , 0,  1 , 1, 1, 1, 0, 0, 2, '            ',  1 , 1, 1
   0.002000 ,  0.084000 ,  100.000000
   1.030000 , 0,  0.000000 ,  400.000000 ,  510.000000 ,  600.000000 , 0, 0,  1.10 ,  0.90 ,  1.10 ,  0.90 , 33, 0, 0, 0
   1.000000, 0
  309 ,  312 , 0,  1 , 1, 1, 1, 0, 0, 2, '            ',  1 , 1, 1
   0.002000 ,  0.084000 ,  100.000000
   1.030000 , 0,  0.000000 ,  400.000000 ,  510.000000 ,  600.000000 , 0, 0,  1.10 ,  0.90 ,  1.10 ,  0.90 , 33, 0, 0, 0
   1.000000, 0
  310 ,  311 , 0,  1 , 1, 1, 1, 0, 0, 2, '            ',  1 , 1, 1
   0.002000 ,  0.084000 ,  100.000000
   1.015000 , 0,  0.000000 ,  400.000000 ,  510.000000 ,  600.000000 , 0, 0,  1.10 ,  0.90 ,  1.10 ,  0.90 , 33, 0, 0, 0
   1.000000, 0
  310 ,  312 , 0,  1 , 1, 1, 1, 0, 0, 2, '            ',  1 , 1, 1
   0.002000 ,  0.084000 ,  100.000000
   1.015000 , 0,  0.000000 ,  400.000000 ,  510.000000 ,  600.000000 , 0, 0,  1.10 ,  0.90 ,  1.10 ,  0.90 , 33, 0, 0, 0
   1.000000, 0
0 / END OF TRANSFORMER DATA, BEGIN AREA DATA
0 / END OF AREA DATA, BEGIN TWO-TERMINAL DC DATA
0 / END OF TWO-TERMINAL DC DATA, BEGIN VSC DC LINE DATA
0 / END OF VSC DC LINE DATA, BEGIN SWITCHED SHUNT DATA
0 / END OF SWITCHED SHUNT DATA, BEGIN IMPEDANCE CORRECTION DATA
0 / END OF IMPEDANCE CORRECTION DATA, BEGIN MULTI-TERMINAL DC DATA
0 / END OF MULTI-TERMINAL DC DATA, BEGIN MULTI-SECTION LINE DATA
0 / END OF MULTI-SECTION LINE DATA, BEGIN ZONE DATA
0 / END OF ZONE DATA, BEGIN INTER-AREA TRANSFER DATA
0 / END OF INTER-AREA TRANSFER DATA, BEGIN OWNER DATA
0 / END OF OWNER DATA, BEGIN FACTS CONTROL DEVICE DATA
0 / END OF FACTS CONTROL DEVICE DATA
0 / END OF SWITCHED SHUNT DATA, BEGIN GNE DATA
0 / END OF GNE DATA, BEGIN INDUCTION MACHINE DATA
0 / END OF INDUCTION MACHINE DATA
Q 
